Info: SIMULATION PARAMETERS:
Info: TIMESTEP               1
Info: NUMBER OF STEPS        0
Info: STEPS PER CYCLE        20
Info: PERIODIC CELL BASIS 1  99.8796 0 0
Info: PERIODIC CELL BASIS 2  0 99.8796 0
Info: PERIODIC CELL BASIS 3  0 0 99.8796
Info: PERIODIC CELL CENTER   0 0 0
Info: FIRST LDB TIMESTEP     100
Info: LAST LDB TIMESTEP     -1
Info: HOM BACKGROUND SCALING 1
Info: MIN ATOMS PER PATCH    40
Info: INITIAL TEMPERATURE    300
Info: CENTER OF MASS MOVING INITIALLY? NO
Info: DIELECTRIC             1
Info: EXCLUDE                SCALED ONE-FOUR
Info: 1-4 ELECTROSTATICS SCALED BY 1
Info: MODIFIED 1-4 VDW PARAMETERS WILL BE USED
Info: DCD FILENAME           ./ne100k.dcd
Info: DCD FREQUENCY          100
Info: DCD FIRST STEP         100
Info: DCD FILE WILL CONTAIN UNIT CELL DATA
Info: NO EXTENDED SYSTEM TRAJECTORY OUTPUT
Info: NO VELOCITY DCD OUTPUT
Info: NO FORCE DCD OUTPUT
Info: OUTPUT FILENAME        ./ne100k
Info: RESTART FILENAME       ./ne100k
Info: RESTART FREQUENCY      20000
Info: BINARY RESTART FILES WILL BE USED
Info: CUTOFF                 12
Info: PAIRLIST DISTANCE      12
Info: PAIRLIST SHRINK RATE   0.01
Info: PAIRLIST GROW RATE     0.01
Info: PAIRLIST TRIGGER       0.3
Info: PAIRLISTS PER CYCLE    2
Info: PAIRLISTS ENABLED
Info: MARGIN                 0
Info: HYDROGEN GROUP CUTOFF  2.5
Info: PATCH DIMENSION        14.5
Info: ENERGY OUTPUT STEPS    50
Info: CROSSTERM ENERGY INCLUDED IN DIHEDRAL
Info: TIMING OUTPUT STEPS    500
Info: VELOCITY RESCALE FREQ  10
Info: VELOCITY RESCALE TEMP  300
Info: USING VERLET I (r-RESPA) MTS SCHEME.
Info: C1 SPLITTING OF LONG RANGE ELECTROSTATICS
Info: PLACING ATOMS IN PATCHES BY HYDROGEN GROUPS
Info: RANDOM NUMBER SEED     1630193105
Info: USE HYDROGEN BONDS?    NO
Info: COORDINATE PDB         ./ne100k_initial.pdb
Info: STRUCTURE FILE         ./ne100k.psf
Info: PARAMETER file: CHARMM format!
Info: PARAMETERS             ./par_bms_dec03.inp
Info: USING ARITHMETIC MEAN TO COMBINE L-J SIGMA PARAMETERS
Info: SUMMARY OF PARAMETERS:
Info: 74 BONDS
Info: 164 ANGLES
Info: 207 DIHEDRAL
Info: 19 IMPROPER
Info: 0 CROSSTERM
Info: 50 VDW
Info: 2 VDW_PAIRS
Info: 0 NBTHOLE_PAIRS
Info: STRUCTURE SUMMARY:
Info: 100000 ATOMS
Info: 0 BONDS
Info: 0 ANGLES
Info: 0 DIHEDRALS
Info: 0 IMPROPERS
Info: 0 CROSSTERMS
Info: 0 EXCLUSIONS
Info: 299997 DEGREES OF FREEDOM
Info: 100000 HYDROGEN GROUPS
Info: 1 ATOMS IN LARGEST HYDROGEN GROUP
Info: 100000 MIGRATION GROUPS
Info: 1 ATOMS IN LARGEST MIGRATION GROUP
Info: TOTAL MASS = 2.0179e+06 amu
Info: TOTAL CHARGE = 0 e
Info: MASS DENSITY = 3.36301 g/cm^3
Info: ATOM DENSITY = 0.100362 atoms/A^3
Info: ADDED 0 IMPLICIT EXCLUSIONS
Info: NONBONDED TABLE R-SQUARED SPACING: 0.0625
Info: NONBONDED TABLE SIZE: 769 POINTS
Info: REMOVING COM VELOCITY 0.0074766 0.0281232 0.0191738
TCL: Running for 10000 steps
ETITLE: TS BOND ANGLE DIHED IMPRP ELECT VDW BOUNDARY MISC KINETIC TOTAL TEMP POTENTIAL TOTAL3 TEMPAVG PRESSURE GPRESSURE VOLUME PRESSAVG GPRESSAVG
ENERGY: 0 0.0000 0.0000 0.0000 0.0000 0.0000 885657.7217 0.0000 0.0000 89371.7705 975029.4922 299.8291 885657.7217 975060.1488 299.8291 309337.1452 309337.1452 996392.1146 309337.1452 309337.1452
ENERGY: 2000 0.0000 0.0000 0.0000 0.0000 0.0000 884802.1772 0.0000 0.0000 89539.8204 974341.9975 300.3929 884802.1772 974372.7371 300.3984 309096.1136 309096.1136 996392.1146 309176.5784 309176.5784
ENERGY: 4000 0.0000 0.0000 0.0000 0.0000 0.0000 884390.4127 0.0000 0.0000 89469.2585 973859.6712 300.1562 884390.4127 973890.2288 300.4035 308973.7396 308973.7396 996392.1146 309024.0503 309024.0503
ENERGY: 6000 0.0000 0.0000 0.0000 0.0000 0.0000 884381.9179 0.0000 0.0000 89246.0037 973627.9216 299.4072 884381.9179 973658.1244 299.8725 308958.3837 308958.3837 996392.1146 308895.6827 308895.6827
ENERGY: 8000 0.0000 0.0000 0.0000 0.0000 0.0000 883593.1943 0.0000 0.0000 89296.0932 972889.2875 299.5753 883593.1943 972919.5813 299.9784 308735.5753 308735.5753 996392.1146 308679.7830 308679.7830
ENERGY: 10000 0.0000 0.0000 0.0000 0.0000 0.0000 883125.2801 0.0000 0.0000 89453.7708 972579.0509 300.1042 883125.2801 972609.3751 299.6711 308606.9256 308606.9256 996392.1146 308560.6635 308560.6635
