Info: SIMULATION PARAMETERS:
Info: TIMESTEP               1
Info: NUMBER OF STEPS        0
Info: STEPS PER CYCLE        20
Info: PERIODIC CELL BASIS 1  46.36 0 0
Info: PERIODIC CELL BASIS 2  0 46.36 0
Info: PERIODIC CELL BASIS 3  0 0 46.36
Info: PERIODIC CELL CENTER   0 0 0
Info: FIRST LDB TIMESTEP     100
Info: LAST LDB TIMESTEP     -1
Info: HOM BACKGROUND SCALING 1
Info: MIN ATOMS PER PATCH    40
Info: INITIAL TEMPERATURE    300
Info: CENTER OF MASS MOVING INITIALLY? NO
Info: DIELECTRIC             1
Info: EXCLUDE                SCALED ONE-FOUR
Info: 1-4 ELECTROSTATICS SCALED BY 1
Info: MODIFIED 1-4 VDW PARAMETERS WILL BE USED
Info: DCD FILENAME           ./ne10k.dcd
Info: DCD FREQUENCY          100
Info: DCD FIRST STEP         100
Info: DCD FILE WILL CONTAIN UNIT CELL DATA
Info: NO EXTENDED SYSTEM TRAJECTORY OUTPUT
Info: NO VELOCITY DCD OUTPUT
Info: NO FORCE DCD OUTPUT
Info: OUTPUT FILENAME        ./ne10k
Info: RESTART FILENAME       ./ne10k
Info: RESTART FREQUENCY      20000
Info: BINARY RESTART FILES WILL BE USED
Info: CUTOFF                 12
Info: PAIRLIST DISTANCE      12
Info: PAIRLIST SHRINK RATE   0.01
Info: PAIRLIST GROW RATE     0.01
Info: PAIRLIST TRIGGER       0.3
Info: PAIRLISTS PER CYCLE    2
Info: PAIRLISTS ENABLED
Info: MARGIN                 0
Info: HYDROGEN GROUP CUTOFF  2.5
Info: PATCH DIMENSION        14.5
Info: ENERGY OUTPUT STEPS    50
Info: CROSSTERM ENERGY INCLUDED IN DIHEDRAL
Info: TIMING OUTPUT STEPS    500
Info: VELOCITY RESCALE FREQ  10
Info: VELOCITY RESCALE TEMP  300
Info: USING VERLET I (r-RESPA) MTS SCHEME.
Info: C1 SPLITTING OF LONG RANGE ELECTROSTATICS
Info: PLACING ATOMS IN PATCHES BY HYDROGEN GROUPS
Info: RANDOM NUMBER SEED     1630355464
Info: USE HYDROGEN BONDS?    NO
Info: COORDINATE PDB         ./ne10k_initial.pdb
Info: STRUCTURE FILE         ./ne10k.psf
Info: PARAMETER file: CHARMM format!
Info: PARAMETERS             ./par_bms_dec03.inp
Info: USING ARITHMETIC MEAN TO COMBINE L-J SIGMA PARAMETERS
Info: SUMMARY OF PARAMETERS:
Info: 74 BONDS
Info: 164 ANGLES
Info: 207 DIHEDRAL
Info: 19 IMPROPER
Info: 0 CROSSTERM
Info: 50 VDW
Info: 2 VDW_PAIRS
Info: 0 NBTHOLE_PAIRS
Info: STRUCTURE SUMMARY:
Info: 10000 ATOMS
Info: 0 BONDS
Info: 0 ANGLES
Info: 0 DIHEDRALS
Info: 0 IMPROPERS
Info: 0 CROSSTERMS
Info: 0 EXCLUSIONS
Info: 29997 DEGREES OF FREEDOM
Info: 10000 HYDROGEN GROUPS
Info: 1 ATOMS IN LARGEST HYDROGEN GROUP
Info: 10000 MIGRATION GROUPS
Info: 1 ATOMS IN LARGEST MIGRATION GROUP
Info: TOTAL MASS = 201790 amu
Info: TOTAL CHARGE = 0 e
Info: MASS DENSITY = 3.36301 g/cm^3
Info: ATOM DENSITY = 0.100362 atoms/A^3
Info: ADDED 0 IMPLICIT EXCLUSIONS
Info: NONBONDED TABLE R-SQUARED SPACING: 0.0625
Info: NONBONDED TABLE SIZE: 769 POINTS
Info: REMOVING COM VELOCITY 0.0139009 0.00884195 -0.0287105
TCL: Running for 10000 steps
ETITLE: TS BOND ANGLE DIHED IMPRP ELECT VDW BOUNDARY MISC KINETIC TOTAL TEMP POTENTIAL TOTAL3 TEMPAVG PRESSURE GPRESSURE VOLUME PRESSAVG GPRESSAVG
ENERGY: 0 0.0000 0.0000 0.0000 0.0000 0.0000 88672.7023 0.0000 0.0000 8970.8524 97643.5547 300.9860 88672.7023 97646.6379 300.9860 309660.8613 309660.8613 99639.2115 309660.8613 309660.8613
ENERGY: 2000 0.0000 0.0000 0.0000 0.0000 0.0000 88501.7538 0.0000 0.0000 8946.5560 97448.3098 300.1708 88501.7538 97451.3988 300.8444 309156.0858 309156.0858 99639.2115 309285.2651 309285.2651
ENERGY: 4000 0.0000 0.0000 0.0000 0.0000 0.0000 88567.6244 0.0000 0.0000 8941.9781 97509.6024 300.0172 88567.6244 97512.6422 299.5255 309337.2952 309337.2952 99639.2115 309187.2757 309187.2757
ENERGY: 6000 0.0000 0.0000 0.0000 0.0000 0.0000 88274.4334 0.0000 0.0000 8950.8607 97225.2942 300.3152 88274.4334 97228.3729 300.8562 308500.6901 308500.6901 99639.2115 308625.7429 308625.7429
ENERGY: 8000 0.0000 0.0000 0.0000 0.0000 0.0000 88319.7119 0.0000 0.0000 8930.7044 97250.4164 299.6390 88319.7119 97253.4193 299.9016 308616.6456 308616.6456 99639.2115 308536.5829 308536.5829
ENERGY: 10000 0.0000 0.0000 0.0000 0.0000 0.0000 88268.4926 0.0000 0.0000 8970.6276 97239.1202 300.9784 88268.4926 97242.2584 299.9786 308484.9136 308484.9136 99639.2115 308573.5134 308573.5134
