Info: SIMULATION PARAMETERS:
Info: TIMESTEP               1
Info: NUMBER OF STEPS        0
Info: STEPS PER CYCLE        20
Info: PERIODIC CELL BASIS 1  46.36 0 0
Info: PERIODIC CELL BASIS 2  0 46.36 0
Info: PERIODIC CELL BASIS 3  0 0 46.36
Info: PERIODIC CELL CENTER   0 0 0
Info: FIRST LDB TIMESTEP     100
Info: LAST LDB TIMESTEP     -1
Info: HOM BACKGROUND SCALING 1
Info: MIN ATOMS PER PATCH    40
Info: INITIAL TEMPERATURE    300
Info: CENTER OF MASS MOVING INITIALLY? NO
Info: DIELECTRIC             1
Info: EXCLUDE                SCALED ONE-FOUR
Info: 1-4 ELECTROSTATICS SCALED BY 1
Info: MODIFIED 1-4 VDW PARAMETERS WILL BE USED
Info: DCD FILENAME           ./ne10k.dcd
Info: DCD FREQUENCY          100
Info: DCD FIRST STEP         100
Info: DCD FILE WILL CONTAIN UNIT CELL DATA
Info: NO EXTENDED SYSTEM TRAJECTORY OUTPUT
Info: NO VELOCITY DCD OUTPUT
Info: NO FORCE DCD OUTPUT
Info: OUTPUT FILENAME        ./ne10k
Info: RESTART FILENAME       ./ne10k
Info: RESTART FREQUENCY      20000
Info: BINARY RESTART FILES WILL BE USED
Info: CUTOFF                 12
Info: PAIRLIST DISTANCE      12
Info: PAIRLIST SHRINK RATE   0.01
Info: PAIRLIST GROW RATE     0.01
Info: PAIRLIST TRIGGER       0.3
Info: PAIRLISTS PER CYCLE    2
Info: PAIRLISTS ENABLED
Info: MARGIN                 0
Info: HYDROGEN GROUP CUTOFF  2.5
Info: PATCH DIMENSION        14.5
Info: ENERGY OUTPUT STEPS    50
Info: CROSSTERM ENERGY INCLUDED IN DIHEDRAL
Info: TIMING OUTPUT STEPS    500
Info: VELOCITY RESCALE FREQ  10
Info: VELOCITY RESCALE TEMP  300
Info: USING VERLET I (r-RESPA) MTS SCHEME.
Info: C1 SPLITTING OF LONG RANGE ELECTROSTATICS
Info: PLACING ATOMS IN PATCHES BY HYDROGEN GROUPS
Info: RANDOM NUMBER SEED     1630346648
Info: USE HYDROGEN BONDS?    NO
Info: COORDINATE PDB         ./ne10k_initial.pdb
Info: STRUCTURE FILE         ./ne10k.psf
Info: PARAMETER file: CHARMM format!
Info: PARAMETERS             ./par_bms_dec03.inp
Info: USING ARITHMETIC MEAN TO COMBINE L-J SIGMA PARAMETERS
Info: SUMMARY OF PARAMETERS:
Info: 74 BONDS
Info: 164 ANGLES
Info: 207 DIHEDRAL
Info: 19 IMPROPER
Info: 0 CROSSTERM
Info: 50 VDW
Info: 2 VDW_PAIRS
Info: 0 NBTHOLE_PAIRS
Info: STRUCTURE SUMMARY:
Info: 10000 ATOMS
Info: 0 BONDS
Info: 0 ANGLES
Info: 0 DIHEDRALS
Info: 0 IMPROPERS
Info: 0 CROSSTERMS
Info: 0 EXCLUSIONS
Info: 29997 DEGREES OF FREEDOM
Info: 10000 HYDROGEN GROUPS
Info: 1 ATOMS IN LARGEST HYDROGEN GROUP
Info: 10000 MIGRATION GROUPS
Info: 1 ATOMS IN LARGEST MIGRATION GROUP
Info: TOTAL MASS = 201790 amu
Info: TOTAL CHARGE = 0 e
Info: MASS DENSITY = 3.36301 g/cm^3
Info: ATOM DENSITY = 0.100362 atoms/A^3
Info: ADDED 0 IMPLICIT EXCLUSIONS
Info: NONBONDED TABLE R-SQUARED SPACING: 0.0625
Info: NONBONDED TABLE SIZE: 769 POINTS
Info: REMOVING COM VELOCITY -0.0298613 0.0242399 -0.00691062
TCL: Running for 10000 steps
ETITLE: TS BOND ANGLE DIHED IMPRP ELECT VDW BOUNDARY MISC KINETIC TOTAL TEMP POTENTIAL TOTAL3 TEMPAVG PRESSURE GPRESSURE VOLUME PRESSAVG GPRESSAVG
ENERGY: 0 0.0000 0.0000 0.0000 0.0000 0.0000 88672.7023 0.0000 0.0000 8841.9547 97514.6570 296.6613 88672.7023 97517.7403 296.6613 309600.9225 309600.9225 99639.2115 309600.9225 309600.9225
ENERGY: 2000 0.0000 0.0000 0.0000 0.0000 0.0000 88573.2583 0.0000 0.0000 8907.1604 97480.4188 298.8490 88573.2583 97483.4225 299.9216 309341.3226 309341.3226 99639.2115 309278.2394 309278.2394
ENERGY: 4000 0.0000 0.0000 0.0000 0.0000 0.0000 88587.8054 0.0000 0.0000 8920.7934 97508.5988 299.3064 88587.8054 97511.6165 299.9259 309393.9197 309393.9197 99639.2115 309252.0378 309252.0378
ENERGY: 6000 0.0000 0.0000 0.0000 0.0000 0.0000 88474.7610 0.0000 0.0000 8959.4473 97434.2083 300.6033 88474.7610 97437.3105 300.5540 309081.6889 309081.6889 99639.2115 309172.9915 309172.9915
ENERGY: 8000 0.0000 0.0000 0.0000 0.0000 0.0000 88480.6562 0.0000 0.0000 8945.5165 97426.1728 300.1359 88480.6562 97429.2034 299.0228 309090.3706 309090.3706 99639.2115 309037.5098 309037.5098
ENERGY: 10000 0.0000 0.0000 0.0000 0.0000 0.0000 88429.6168 0.0000 0.0000 8905.6047 97335.2214 298.7968 88429.6168 97338.2016 299.5192 308921.8886 308921.8886 99639.2115 308762.2764 308762.2764
