Info: SIMULATION PARAMETERS:
Info: TIMESTEP               1
Info: NUMBER OF STEPS        0
Info: STEPS PER CYCLE        20
Info: PERIODIC CELL BASIS 1  99.8796 0 0
Info: PERIODIC CELL BASIS 2  0 99.8796 0
Info: PERIODIC CELL BASIS 3  0 0 99.8796
Info: PERIODIC CELL CENTER   0 0 0
Info: FIRST LDB TIMESTEP     100
Info: LAST LDB TIMESTEP     -1
Info: HOM BACKGROUND SCALING 1
Info: MIN ATOMS PER PATCH    40
Info: INITIAL TEMPERATURE    300
Info: CENTER OF MASS MOVING INITIALLY? NO
Info: DIELECTRIC             1
Info: EXCLUDE                SCALED ONE-FOUR
Info: 1-4 ELECTROSTATICS SCALED BY 1
Info: MODIFIED 1-4 VDW PARAMETERS WILL BE USED
Info: DCD FILENAME           ./ne100k.dcd
Info: DCD FREQUENCY          100
Info: DCD FIRST STEP         100
Info: DCD FILE WILL CONTAIN UNIT CELL DATA
Info: NO EXTENDED SYSTEM TRAJECTORY OUTPUT
Info: NO VELOCITY DCD OUTPUT
Info: NO FORCE DCD OUTPUT
Info: OUTPUT FILENAME        ./ne100k
Info: RESTART FILENAME       ./ne100k
Info: RESTART FREQUENCY      20000
Info: BINARY RESTART FILES WILL BE USED
Info: CUTOFF                 12
Info: PAIRLIST DISTANCE      12
Info: PAIRLIST SHRINK RATE   0.01
Info: PAIRLIST GROW RATE     0.01
Info: PAIRLIST TRIGGER       0.3
Info: PAIRLISTS PER CYCLE    2
Info: PAIRLISTS ENABLED
Info: MARGIN                 0
Info: HYDROGEN GROUP CUTOFF  2.5
Info: PATCH DIMENSION        14.5
Info: ENERGY OUTPUT STEPS    50
Info: CROSSTERM ENERGY INCLUDED IN DIHEDRAL
Info: TIMING OUTPUT STEPS    500
Info: VELOCITY RESCALE FREQ  10
Info: VELOCITY RESCALE TEMP  300
Info: USING VERLET I (r-RESPA) MTS SCHEME.
Info: C1 SPLITTING OF LONG RANGE ELECTROSTATICS
Info: PLACING ATOMS IN PATCHES BY HYDROGEN GROUPS
Info: RANDOM NUMBER SEED     1630311893
Info: USE HYDROGEN BONDS?    NO
Info: COORDINATE PDB         ./ne100k_initial.pdb
Info: STRUCTURE FILE         ./ne100k.psf
Info: PARAMETER file: CHARMM format!
Info: PARAMETERS             ./par_bms_dec03.inp
Info: USING ARITHMETIC MEAN TO COMBINE L-J SIGMA PARAMETERS
Info: SUMMARY OF PARAMETERS:
Info: 74 BONDS
Info: 164 ANGLES
Info: 207 DIHEDRAL
Info: 19 IMPROPER
Info: 0 CROSSTERM
Info: 50 VDW
Info: 2 VDW_PAIRS
Info: 0 NBTHOLE_PAIRS
Info: STRUCTURE SUMMARY:
Info: 100000 ATOMS
Info: 0 BONDS
Info: 0 ANGLES
Info: 0 DIHEDRALS
Info: 0 IMPROPERS
Info: 0 CROSSTERMS
Info: 0 EXCLUSIONS
Info: 299997 DEGREES OF FREEDOM
Info: 100000 HYDROGEN GROUPS
Info: 1 ATOMS IN LARGEST HYDROGEN GROUP
Info: 100000 MIGRATION GROUPS
Info: 1 ATOMS IN LARGEST MIGRATION GROUP
Info: TOTAL MASS = 2.0179e+06 amu
Info: TOTAL CHARGE = 0 e
Info: MASS DENSITY = 3.36301 g/cm^3
Info: ATOM DENSITY = 0.100362 atoms/A^3
Info: ADDED 0 IMPLICIT EXCLUSIONS
Info: NONBONDED TABLE R-SQUARED SPACING: 0.0625
Info: NONBONDED TABLE SIZE: 769 POINTS
Info: REMOVING COM VELOCITY 0.0158709 0.0245053 0.0140227
TCL: Running for 10000 steps
ETITLE: TS BOND ANGLE DIHED IMPRP ELECT VDW BOUNDARY MISC KINETIC TOTAL TEMP POTENTIAL TOTAL3 TEMPAVG PRESSURE GPRESSURE VOLUME PRESSAVG GPRESSAVG
ENERGY: 0 0.0000 0.0000 0.0000 0.0000 0.0000 885657.7217 0.0000 0.0000 89337.2244 974994.9461 299.7132 885657.7217 975025.6028 299.7132 309335.5387 309335.5387 996392.1146 309335.5387 309335.5387
ENERGY: 2000 0.0000 0.0000 0.0000 0.0000 0.0000 885103.5890 0.0000 0.0000 89330.4769 974434.0659 299.6906 885103.5890 974464.4130 300.1770 309172.8030 309172.8030 996392.1146 309144.9352 309144.9352
ENERGY: 4000 0.0000 0.0000 0.0000 0.0000 0.0000 884525.0147 0.0000 0.0000 89427.9391 973952.9539 300.0176 884525.0147 973983.4567 300.0073 309009.5331 309009.5331 996392.1146 308982.8588 308982.8588
ENERGY: 6000 0.0000 0.0000 0.0000 0.0000 0.0000 883909.4412 0.0000 0.0000 89322.6335 973232.0748 299.6643 883909.4412 973262.4358 300.1350 308825.1730 308825.1730 996392.1146 308835.0009 308835.0009
ENERGY: 8000 0.0000 0.0000 0.0000 0.0000 0.0000 883168.4387 0.0000 0.0000 89636.1992 972804.6379 300.7163 883168.4387 972835.5603 299.7164 308623.8529 308623.8529 996392.1146 308654.1372 308654.1372
ENERGY: 10000 0.0000 0.0000 0.0000 0.0000 0.0000 882844.4125 0.0000 0.0000 89323.7914 972168.2039 299.6682 882844.4125 972198.5215 300.0386 308517.4937 308517.4937 996392.1146 308501.8829 308501.8829
