Info: SIMULATION PARAMETERS:
Info: TIMESTEP               1
Info: NUMBER OF STEPS        0
Info: STEPS PER CYCLE        20
Info: PERIODIC CELL BASIS 1  46.36 0 0
Info: PERIODIC CELL BASIS 2  0 46.36 0
Info: PERIODIC CELL BASIS 3  0 0 46.36
Info: PERIODIC CELL CENTER   0 0 0
Info: FIRST LDB TIMESTEP     100
Info: LAST LDB TIMESTEP     -1
Info: HOM BACKGROUND SCALING 1
Info: MIN ATOMS PER PATCH    40
Info: INITIAL TEMPERATURE    300
Info: CENTER OF MASS MOVING INITIALLY? NO
Info: DIELECTRIC             1
Info: EXCLUDE                SCALED ONE-FOUR
Info: 1-4 ELECTROSTATICS SCALED BY 1
Info: MODIFIED 1-4 VDW PARAMETERS WILL BE USED
Info: DCD FILENAME           ./ne10k.dcd
Info: DCD FREQUENCY          100
Info: DCD FIRST STEP         100
Info: DCD FILE WILL CONTAIN UNIT CELL DATA
Info: NO EXTENDED SYSTEM TRAJECTORY OUTPUT
Info: NO VELOCITY DCD OUTPUT
Info: NO FORCE DCD OUTPUT
Info: OUTPUT FILENAME        ./ne10k
Info: RESTART FILENAME       ./ne10k
Info: RESTART FREQUENCY      20000
Info: BINARY RESTART FILES WILL BE USED
Info: CUTOFF                 12
Info: PAIRLIST DISTANCE      12
Info: PAIRLIST SHRINK RATE   0.01
Info: PAIRLIST GROW RATE     0.01
Info: PAIRLIST TRIGGER       0.3
Info: PAIRLISTS PER CYCLE    2
Info: PAIRLISTS ENABLED
Info: MARGIN                 0
Info: HYDROGEN GROUP CUTOFF  2.5
Info: PATCH DIMENSION        14.5
Info: ENERGY OUTPUT STEPS    50
Info: CROSSTERM ENERGY INCLUDED IN DIHEDRAL
Info: TIMING OUTPUT STEPS    500
Info: VELOCITY RESCALE FREQ  10
Info: VELOCITY RESCALE TEMP  300
Info: USING VERLET I (r-RESPA) MTS SCHEME.
Info: C1 SPLITTING OF LONG RANGE ELECTROSTATICS
Info: PLACING ATOMS IN PATCHES BY HYDROGEN GROUPS
Info: RANDOM NUMBER SEED     1630191244
Info: USE HYDROGEN BONDS?    NO
Info: COORDINATE PDB         ./ne10k_initial.pdb
Info: STRUCTURE FILE         ./ne10k.psf
Info: PARAMETER file: CHARMM format!
Info: PARAMETERS             ./par_bms_dec03.inp
Info: USING ARITHMETIC MEAN TO COMBINE L-J SIGMA PARAMETERS
Info: SUMMARY OF PARAMETERS:
Info: 74 BONDS
Info: 164 ANGLES
Info: 207 DIHEDRAL
Info: 19 IMPROPER
Info: 0 CROSSTERM
Info: 50 VDW
Info: 2 VDW_PAIRS
Info: 0 NBTHOLE_PAIRS
Info: STRUCTURE SUMMARY:
Info: 10000 ATOMS
Info: 0 BONDS
Info: 0 ANGLES
Info: 0 DIHEDRALS
Info: 0 IMPROPERS
Info: 0 CROSSTERMS
Info: 0 EXCLUSIONS
Info: 29997 DEGREES OF FREEDOM
Info: 10000 HYDROGEN GROUPS
Info: 1 ATOMS IN LARGEST HYDROGEN GROUP
Info: 10000 MIGRATION GROUPS
Info: 1 ATOMS IN LARGEST MIGRATION GROUP
Info: TOTAL MASS = 201790 amu
Info: TOTAL CHARGE = 0 e
Info: MASS DENSITY = 3.36301 g/cm^3
Info: ATOM DENSITY = 0.100362 atoms/A^3
Info: ADDED 0 IMPLICIT EXCLUSIONS
Info: NONBONDED TABLE R-SQUARED SPACING: 0.0625
Info: NONBONDED TABLE SIZE: 769 POINTS
Info: REMOVING COM VELOCITY -0.0110191 -0.00225233 -0.0122941
TCL: Running for 10000 steps
ETITLE: TS BOND ANGLE DIHED IMPRP ELECT VDW BOUNDARY MISC KINETIC TOTAL TEMP POTENTIAL TOTAL3 TEMPAVG PRESSURE GPRESSURE VOLUME PRESSAVG GPRESSAVG
ENERGY: 0 0.0000 0.0000 0.0000 0.0000 0.0000 88672.7023 0.0000 0.0000 8877.8599 97550.5622 297.8659 88672.7023 97553.6454 297.8659 309617.6188 309617.6188 99639.2115 309617.6188 309617.6188
ENERGY: 2000 0.0000 0.0000 0.0000 0.0000 0.0000 88493.7111 0.0000 0.0000 8991.8428 97485.5539 301.6902 88493.7111 97488.7149 300.7267 309152.3403 309152.3403 99639.2115 309449.7202 309449.7202
ENERGY: 4000 0.0000 0.0000 0.0000 0.0000 0.0000 88527.5996 0.0000 0.0000 8946.6324 97474.2320 300.1734 88527.5996 97477.3073 299.6476 309229.4332 309229.4332 99639.2115 309183.9914 309183.9914
ENERGY: 6000 0.0000 0.0000 0.0000 0.0000 0.0000 88554.1357 0.0000 0.0000 8915.4599 97469.5957 299.1275 88554.1357 97472.5041 299.3766 309291.7789 309291.7789 99639.2115 309082.2523 309082.2523
ENERGY: 8000 0.0000 0.0000 0.0000 0.0000 0.0000 88446.0827 0.0000 0.0000 8885.3018 97331.3845 298.1156 88446.0827 97334.3296 300.0678 308964.1974 308964.1974 99639.2115 308819.2039 308819.2039
ENERGY: 10000 0.0000 0.0000 0.0000 0.0000 0.0000 88338.2801 0.0000 0.0000 8913.7599 97252.0400 299.0704 88338.2801 97255.0271 299.0975 308662.6640 308662.6640 99639.2115 308422.0190 308422.0190
