Info: SIMULATION PARAMETERS:
Info: TIMESTEP               1
Info: NUMBER OF STEPS        0
Info: STEPS PER CYCLE        20
Info: PERIODIC CELL BASIS 1  99.8796 0 0
Info: PERIODIC CELL BASIS 2  0 99.8796 0
Info: PERIODIC CELL BASIS 3  0 0 99.8796
Info: PERIODIC CELL CENTER   0 0 0
Info: FIRST LDB TIMESTEP     100
Info: LAST LDB TIMESTEP     -1
Info: HOM BACKGROUND SCALING 1
Info: MIN ATOMS PER PATCH    40
Info: INITIAL TEMPERATURE    300
Info: CENTER OF MASS MOVING INITIALLY? NO
Info: DIELECTRIC             1
Info: EXCLUDE                SCALED ONE-FOUR
Info: 1-4 ELECTROSTATICS SCALED BY 1
Info: MODIFIED 1-4 VDW PARAMETERS WILL BE USED
Info: DCD FILENAME           ./ne100k.dcd
Info: DCD FREQUENCY          100
Info: DCD FIRST STEP         100
Info: DCD FILE WILL CONTAIN UNIT CELL DATA
Info: NO EXTENDED SYSTEM TRAJECTORY OUTPUT
Info: NO VELOCITY DCD OUTPUT
Info: NO FORCE DCD OUTPUT
Info: OUTPUT FILENAME        ./ne100k
Info: RESTART FILENAME       ./ne100k
Info: RESTART FREQUENCY      20000
Info: BINARY RESTART FILES WILL BE USED
Info: CUTOFF                 12
Info: PAIRLIST DISTANCE      12
Info: PAIRLIST SHRINK RATE   0.01
Info: PAIRLIST GROW RATE     0.01
Info: PAIRLIST TRIGGER       0.3
Info: PAIRLISTS PER CYCLE    2
Info: PAIRLISTS ENABLED
Info: MARGIN                 0
Info: HYDROGEN GROUP CUTOFF  2.5
Info: PATCH DIMENSION        14.5
Info: ENERGY OUTPUT STEPS    50
Info: CROSSTERM ENERGY INCLUDED IN DIHEDRAL
Info: TIMING OUTPUT STEPS    500
Info: VELOCITY RESCALE FREQ  10
Info: VELOCITY RESCALE TEMP  300
Info: USING VERLET I (r-RESPA) MTS SCHEME.
Info: C1 SPLITTING OF LONG RANGE ELECTROSTATICS
Info: PLACING ATOMS IN PATCHES BY HYDROGEN GROUPS
Info: RANDOM NUMBER SEED     1630271334
Info: USE HYDROGEN BONDS?    NO
Info: COORDINATE PDB         ./ne100k_initial.pdb
Info: STRUCTURE FILE         ./ne100k.psf
Info: PARAMETER file: CHARMM format!
Info: PARAMETERS             ./par_bms_dec03.inp
Info: USING ARITHMETIC MEAN TO COMBINE L-J SIGMA PARAMETERS
Info: SUMMARY OF PARAMETERS:
Info: 74 BONDS
Info: 164 ANGLES
Info: 207 DIHEDRAL
Info: 19 IMPROPER
Info: 0 CROSSTERM
Info: 50 VDW
Info: 2 VDW_PAIRS
Info: 0 NBTHOLE_PAIRS
Info: STRUCTURE SUMMARY:
Info: 100000 ATOMS
Info: 0 BONDS
Info: 0 ANGLES
Info: 0 DIHEDRALS
Info: 0 IMPROPERS
Info: 0 CROSSTERMS
Info: 0 EXCLUSIONS
Info: 299997 DEGREES OF FREEDOM
Info: 100000 HYDROGEN GROUPS
Info: 1 ATOMS IN LARGEST HYDROGEN GROUP
Info: 100000 MIGRATION GROUPS
Info: 1 ATOMS IN LARGEST MIGRATION GROUP
Info: TOTAL MASS = 2.0179e+06 amu
Info: TOTAL CHARGE = 0 e
Info: MASS DENSITY = 3.36301 g/cm^3
Info: ATOM DENSITY = 0.100362 atoms/A^3
Info: ADDED 0 IMPLICIT EXCLUSIONS
Info: NONBONDED TABLE R-SQUARED SPACING: 0.0625
Info: NONBONDED TABLE SIZE: 769 POINTS
Info: REMOVING COM VELOCITY -0.000968045 0.00438998 0.020791
TCL: Running for 10000 steps
ETITLE: TS BOND ANGLE DIHED IMPRP ELECT VDW BOUNDARY MISC KINETIC TOTAL TEMP POTENTIAL TOTAL3 TEMPAVG PRESSURE GPRESSURE VOLUME PRESSAVG GPRESSAVG
ENERGY: 0 0.0000 0.0000 0.0000 0.0000 0.0000 885657.7217 0.0000 0.0000 89233.6821 974891.4038 299.3659 885657.7217 974922.0605 299.3659 309330.7239 309330.7239 996392.1146 309330.7239 309330.7239
ENERGY: 2000 0.0000 0.0000 0.0000 0.0000 0.0000 884905.8052 0.0000 0.0000 89513.5042 974419.3095 300.3046 884905.8052 974449.9987 300.1403 309126.3743 309126.3743 996392.1146 309160.1242 309160.1242
ENERGY: 4000 0.0000 0.0000 0.0000 0.0000 0.0000 884692.3354 0.0000 0.0000 89324.3369 974016.6722 299.6700 884692.3354 974047.1498 299.8970 309054.1931 309054.1931 996392.1146 309016.2940 309016.2940
ENERGY: 6000 0.0000 0.0000 0.0000 0.0000 0.0000 883963.4608 0.0000 0.0000 89356.5572 973320.0180 299.7781 883963.4608 973350.3649 300.0829 308845.2237 308845.2237 996392.1146 308857.1188 308857.1188
ENERGY: 8000 0.0000 0.0000 0.0000 0.0000 0.0000 883259.8633 0.0000 0.0000 89426.6963 972686.5596 300.0134 883259.8633 972717.0113 300.0857 308643.4349 308643.4349 996392.1146 308682.0966 308682.0966
ENERGY: 10000 0.0000 0.0000 0.0000 0.0000 0.0000 882720.0629 0.0000 0.0000 89474.7082 972194.7711 300.1745 882720.0629 972225.5257 300.0312 308489.4538 308489.4538 996392.1146 308533.9614 308533.9614
