Info: SIMULATION PARAMETERS:
Info: TIMESTEP               1
Info: NUMBER OF STEPS        0
Info: STEPS PER CYCLE        20
Info: PERIODIC CELL BASIS 1  99.8796 0 0
Info: PERIODIC CELL BASIS 2  0 99.8796 0
Info: PERIODIC CELL BASIS 3  0 0 99.8796
Info: PERIODIC CELL CENTER   0 0 0
Info: FIRST LDB TIMESTEP     100
Info: LAST LDB TIMESTEP     -1
Info: HOM BACKGROUND SCALING 1
Info: MIN ATOMS PER PATCH    40
Info: INITIAL TEMPERATURE    300
Info: CENTER OF MASS MOVING INITIALLY? NO
Info: DIELECTRIC             1
Info: EXCLUDE                SCALED ONE-FOUR
Info: 1-4 ELECTROSTATICS SCALED BY 1
Info: MODIFIED 1-4 VDW PARAMETERS WILL BE USED
Info: DCD FILENAME           ./ne100k.dcd
Info: DCD FREQUENCY          100
Info: DCD FIRST STEP         100
Info: DCD FILE WILL CONTAIN UNIT CELL DATA
Info: NO EXTENDED SYSTEM TRAJECTORY OUTPUT
Info: NO VELOCITY DCD OUTPUT
Info: NO FORCE DCD OUTPUT
Info: OUTPUT FILENAME        ./ne100k
Info: RESTART FILENAME       ./ne100k
Info: RESTART FREQUENCY      20000
Info: BINARY RESTART FILES WILL BE USED
Info: CUTOFF                 12
Info: PAIRLIST DISTANCE      12
Info: PAIRLIST SHRINK RATE   0.01
Info: PAIRLIST GROW RATE     0.01
Info: PAIRLIST TRIGGER       0.3
Info: PAIRLISTS PER CYCLE    2
Info: PAIRLISTS ENABLED
Info: MARGIN                 0
Info: HYDROGEN GROUP CUTOFF  2.5
Info: PATCH DIMENSION        14.5
Info: ENERGY OUTPUT STEPS    50
Info: CROSSTERM ENERGY INCLUDED IN DIHEDRAL
Info: TIMING OUTPUT STEPS    500
Info: VELOCITY RESCALE FREQ  10
Info: VELOCITY RESCALE TEMP  300
Info: USING VERLET I (r-RESPA) MTS SCHEME.
Info: C1 SPLITTING OF LONG RANGE ELECTROSTATICS
Info: PLACING ATOMS IN PATCHES BY HYDROGEN GROUPS
Info: RANDOM NUMBER SEED     1630346898
Info: USE HYDROGEN BONDS?    NO
Info: COORDINATE PDB         ./ne100k_initial.pdb
Info: STRUCTURE FILE         ./ne100k.psf
Info: PARAMETER file: CHARMM format!
Info: PARAMETERS             ./par_bms_dec03.inp
Info: USING ARITHMETIC MEAN TO COMBINE L-J SIGMA PARAMETERS
Info: SUMMARY OF PARAMETERS:
Info: 74 BONDS
Info: 164 ANGLES
Info: 207 DIHEDRAL
Info: 19 IMPROPER
Info: 0 CROSSTERM
Info: 50 VDW
Info: 2 VDW_PAIRS
Info: 0 NBTHOLE_PAIRS
Info: STRUCTURE SUMMARY:
Info: 100000 ATOMS
Info: 0 BONDS
Info: 0 ANGLES
Info: 0 DIHEDRALS
Info: 0 IMPROPERS
Info: 0 CROSSTERMS
Info: 0 EXCLUSIONS
Info: 299997 DEGREES OF FREEDOM
Info: 100000 HYDROGEN GROUPS
Info: 1 ATOMS IN LARGEST HYDROGEN GROUP
Info: 100000 MIGRATION GROUPS
Info: 1 ATOMS IN LARGEST MIGRATION GROUP
Info: TOTAL MASS = 2.0179e+06 amu
Info: TOTAL CHARGE = 0 e
Info: MASS DENSITY = 3.36301 g/cm^3
Info: ATOM DENSITY = 0.100362 atoms/A^3
Info: ADDED 0 IMPLICIT EXCLUSIONS
Info: NONBONDED TABLE R-SQUARED SPACING: 0.0625
Info: NONBONDED TABLE SIZE: 769 POINTS
Info: REMOVING COM VELOCITY 0.0137793 0.00937607 0.0212781
TCL: Running for 10000 steps
ETITLE: TS BOND ANGLE DIHED IMPRP ELECT VDW BOUNDARY MISC KINETIC TOTAL TEMP POTENTIAL TOTAL3 TEMPAVG PRESSURE GPRESSURE VOLUME PRESSAVG GPRESSAVG
ENERGY: 0 0.0000 0.0000 0.0000 0.0000 0.0000 885657.7217 0.0000 0.0000 89757.1058 975414.8275 301.1219 885657.7217 975445.4842 301.1219 309355.0637 309355.0637 996392.1146 309355.0637 309355.0637
ENERGY: 2000 0.0000 0.0000 0.0000 0.0000 0.0000 885093.4124 0.0000 0.0000 89262.4477 974355.8601 299.4624 885093.4124 974386.3009 300.1204 309167.7715 309167.7715 996392.1146 309194.5273 309194.5273
ENERGY: 4000 0.0000 0.0000 0.0000 0.0000 0.0000 884475.2316 0.0000 0.0000 89523.8577 973999.0893 300.3394 884475.2316 974029.7161 299.8771 308999.2764 308999.2764 996392.1146 309001.8941 309001.8941
ENERGY: 6000 0.0000 0.0000 0.0000 0.0000 0.0000 883904.1704 0.0000 0.0000 89453.9294 973358.0998 300.1048 883904.1704 973388.7927 299.9206 308831.5680 308831.5680 996392.1146 308855.7879 308855.7879
ENERGY: 8000 0.0000 0.0000 0.0000 0.0000 0.0000 883432.7492 0.0000 0.0000 89477.6610 972910.4101 300.1844 883432.7492 972940.9555 299.8857 308695.3218 308695.3218 996392.1146 308711.0143 308711.0143
ENERGY: 10000 0.0000 0.0000 0.0000 0.0000 0.0000 883218.5347 0.0000 0.0000 89348.6894 972567.2241 299.7517 883218.5347 972597.3689 299.9309 308627.0693 308627.0693 996392.1146 308553.8610 308553.8610
