Info: SIMULATION PARAMETERS:
Info: TIMESTEP               1
Info: NUMBER OF STEPS        0
Info: STEPS PER CYCLE        20
Info: PERIODIC CELL BASIS 1  99.8796 0 0
Info: PERIODIC CELL BASIS 2  0 99.8796 0
Info: PERIODIC CELL BASIS 3  0 0 99.8796
Info: PERIODIC CELL CENTER   0 0 0
Info: FIRST LDB TIMESTEP     100
Info: LAST LDB TIMESTEP     -1
Info: HOM BACKGROUND SCALING 1
Info: MIN ATOMS PER PATCH    40
Info: INITIAL TEMPERATURE    300
Info: CENTER OF MASS MOVING INITIALLY? NO
Info: DIELECTRIC             1
Info: EXCLUDE                SCALED ONE-FOUR
Info: 1-4 ELECTROSTATICS SCALED BY 1
Info: MODIFIED 1-4 VDW PARAMETERS WILL BE USED
Info: DCD FILENAME           ./ne100k.dcd
Info: DCD FREQUENCY          100
Info: DCD FIRST STEP         100
Info: DCD FILE WILL CONTAIN UNIT CELL DATA
Info: NO EXTENDED SYSTEM TRAJECTORY OUTPUT
Info: NO VELOCITY DCD OUTPUT
Info: NO FORCE DCD OUTPUT
Info: OUTPUT FILENAME        ./ne100k
Info: RESTART FILENAME       ./ne100k
Info: RESTART FREQUENCY      20000
Info: BINARY RESTART FILES WILL BE USED
Info: CUTOFF                 12
Info: PAIRLIST DISTANCE      12
Info: PAIRLIST SHRINK RATE   0.01
Info: PAIRLIST GROW RATE     0.01
Info: PAIRLIST TRIGGER       0.3
Info: PAIRLISTS PER CYCLE    2
Info: PAIRLISTS ENABLED
Info: MARGIN                 0
Info: HYDROGEN GROUP CUTOFF  2.5
Info: PATCH DIMENSION        14.5
Info: ENERGY OUTPUT STEPS    50
Info: CROSSTERM ENERGY INCLUDED IN DIHEDRAL
Info: TIMING OUTPUT STEPS    500
Info: VELOCITY RESCALE FREQ  10
Info: VELOCITY RESCALE TEMP  300
Info: USING VERLET I (r-RESPA) MTS SCHEME.
Info: C1 SPLITTING OF LONG RANGE ELECTROSTATICS
Info: PLACING ATOMS IN PATCHES BY HYDROGEN GROUPS
Info: RANDOM NUMBER SEED     1630333101
Info: USE HYDROGEN BONDS?    NO
Info: COORDINATE PDB         ./ne100k_initial.pdb
Info: STRUCTURE FILE         ./ne100k.psf
Info: PARAMETER file: CHARMM format!
Info: PARAMETERS             ./par_bms_dec03.inp
Info: USING ARITHMETIC MEAN TO COMBINE L-J SIGMA PARAMETERS
Info: SUMMARY OF PARAMETERS:
Info: 74 BONDS
Info: 164 ANGLES
Info: 207 DIHEDRAL
Info: 19 IMPROPER
Info: 0 CROSSTERM
Info: 50 VDW
Info: 2 VDW_PAIRS
Info: 0 NBTHOLE_PAIRS
Info: STRUCTURE SUMMARY:
Info: 100000 ATOMS
Info: 0 BONDS
Info: 0 ANGLES
Info: 0 DIHEDRALS
Info: 0 IMPROPERS
Info: 0 CROSSTERMS
Info: 0 EXCLUSIONS
Info: 299997 DEGREES OF FREEDOM
Info: 100000 HYDROGEN GROUPS
Info: 1 ATOMS IN LARGEST HYDROGEN GROUP
Info: 100000 MIGRATION GROUPS
Info: 1 ATOMS IN LARGEST MIGRATION GROUP
Info: TOTAL MASS = 2.0179e+06 amu
Info: TOTAL CHARGE = 0 e
Info: MASS DENSITY = 3.36301 g/cm^3
Info: ATOM DENSITY = 0.100362 atoms/A^3
Info: ADDED 0 IMPLICIT EXCLUSIONS
Info: NONBONDED TABLE R-SQUARED SPACING: 0.0625
Info: NONBONDED TABLE SIZE: 769 POINTS
Info: REMOVING COM VELOCITY -0.00223737 -0.00871795 0.00772015
TCL: Running for 10000 steps
ETITLE: TS BOND ANGLE DIHED IMPRP ELECT VDW BOUNDARY MISC KINETIC TOTAL TEMP POTENTIAL TOTAL3 TEMPAVG PRESSURE GPRESSURE VOLUME PRESSAVG GPRESSAVG
ENERGY: 0 0.0000 0.0000 0.0000 0.0000 0.0000 885657.7217 0.0000 0.0000 89161.3417 974819.0634 299.1232 885657.7217 974849.7201 299.1232 309327.3600 309327.3600 996392.1146 309327.3600 309327.3600
ENERGY: 2000 0.0000 0.0000 0.0000 0.0000 0.0000 885245.8786 0.0000 0.0000 89298.2631 974544.1418 299.5825 885245.8786 974574.3702 300.0008 309211.7835 309211.7835 996392.1146 309173.0280 309173.0280
ENERGY: 4000 0.0000 0.0000 0.0000 0.0000 0.0000 884410.1002 0.0000 0.0000 89425.3492 973835.4494 300.0089 884410.1002 973866.0495 300.1469 308976.3614 308976.3614 996392.1146 308971.7113 308971.7113
ENERGY: 6000 0.0000 0.0000 0.0000 0.0000 0.0000 883714.4801 0.0000 0.0000 89370.2121 973084.6923 299.8239 883714.4801 973115.2118 300.1519 308772.7108 308772.7108 996392.1146 308790.7950 308790.7950
ENERGY: 8000 0.0000 0.0000 0.0000 0.0000 0.0000 883440.7776 0.0000 0.0000 89432.2508 972873.0284 300.0320 883440.7776 972903.5864 300.0805 308696.2530 308696.2530 996392.1146 308725.3932 308725.3932
ENERGY: 10000 0.0000 0.0000 0.0000 0.0000 0.0000 882572.7336 0.0000 0.0000 89480.3684 972053.1020 300.1935 882572.7336 972083.8479 300.3781 308445.4826 308445.4826 996392.1146 308516.9871 308516.9871
