Info: SIMULATION PARAMETERS:
Info: TIMESTEP               1
Info: NUMBER OF STEPS        0
Info: STEPS PER CYCLE        20
Info: PERIODIC CELL BASIS 1  46.36 0 0
Info: PERIODIC CELL BASIS 2  0 46.36 0
Info: PERIODIC CELL BASIS 3  0 0 46.36
Info: PERIODIC CELL CENTER   0 0 0
Info: FIRST LDB TIMESTEP     100
Info: LAST LDB TIMESTEP     -1
Info: HOM BACKGROUND SCALING 1
Info: MIN ATOMS PER PATCH    40
Info: INITIAL TEMPERATURE    300
Info: CENTER OF MASS MOVING INITIALLY? NO
Info: DIELECTRIC             1
Info: EXCLUDE                SCALED ONE-FOUR
Info: 1-4 ELECTROSTATICS SCALED BY 1
Info: MODIFIED 1-4 VDW PARAMETERS WILL BE USED
Info: DCD FILENAME           ./ne10k.dcd
Info: DCD FREQUENCY          100
Info: DCD FIRST STEP         100
Info: DCD FILE WILL CONTAIN UNIT CELL DATA
Info: NO EXTENDED SYSTEM TRAJECTORY OUTPUT
Info: NO VELOCITY DCD OUTPUT
Info: NO FORCE DCD OUTPUT
Info: OUTPUT FILENAME        ./ne10k
Info: RESTART FILENAME       ./ne10k
Info: RESTART FREQUENCY      20000
Info: BINARY RESTART FILES WILL BE USED
Info: CUTOFF                 12
Info: PAIRLIST DISTANCE      12
Info: PAIRLIST SHRINK RATE   0.01
Info: PAIRLIST GROW RATE     0.01
Info: PAIRLIST TRIGGER       0.3
Info: PAIRLISTS PER CYCLE    2
Info: PAIRLISTS ENABLED
Info: MARGIN                 0
Info: HYDROGEN GROUP CUTOFF  2.5
Info: PATCH DIMENSION        14.5
Info: ENERGY OUTPUT STEPS    50
Info: CROSSTERM ENERGY INCLUDED IN DIHEDRAL
Info: TIMING OUTPUT STEPS    500
Info: VELOCITY RESCALE FREQ  10
Info: VELOCITY RESCALE TEMP  300
Info: USING VERLET I (r-RESPA) MTS SCHEME.
Info: C1 SPLITTING OF LONG RANGE ELECTROSTATICS
Info: PLACING ATOMS IN PATCHES BY HYDROGEN GROUPS
Info: RANDOM NUMBER SEED     1630311250
Info: USE HYDROGEN BONDS?    NO
Info: COORDINATE PDB         ./ne10k_initial.pdb
Info: STRUCTURE FILE         ./ne10k.psf
Info: PARAMETER file: CHARMM format!
Info: PARAMETERS             ./par_bms_dec03.inp
Info: USING ARITHMETIC MEAN TO COMBINE L-J SIGMA PARAMETERS
Info: SUMMARY OF PARAMETERS:
Info: 74 BONDS
Info: 164 ANGLES
Info: 207 DIHEDRAL
Info: 19 IMPROPER
Info: 0 CROSSTERM
Info: 50 VDW
Info: 2 VDW_PAIRS
Info: 0 NBTHOLE_PAIRS
Info: STRUCTURE SUMMARY:
Info: 10000 ATOMS
Info: 0 BONDS
Info: 0 ANGLES
Info: 0 DIHEDRALS
Info: 0 IMPROPERS
Info: 0 CROSSTERMS
Info: 0 EXCLUSIONS
Info: 29997 DEGREES OF FREEDOM
Info: 10000 HYDROGEN GROUPS
Info: 1 ATOMS IN LARGEST HYDROGEN GROUP
Info: 10000 MIGRATION GROUPS
Info: 1 ATOMS IN LARGEST MIGRATION GROUP
Info: TOTAL MASS = 201790 amu
Info: TOTAL CHARGE = 0 e
Info: MASS DENSITY = 3.36301 g/cm^3
Info: ATOM DENSITY = 0.100362 atoms/A^3
Info: ADDED 0 IMPLICIT EXCLUSIONS
Info: NONBONDED TABLE R-SQUARED SPACING: 0.0625
Info: NONBONDED TABLE SIZE: 769 POINTS
Info: REMOVING COM VELOCITY -0.0912678 0.0470686 -0.0320862
TCL: Running for 10000 steps
ETITLE: TS BOND ANGLE DIHED IMPRP ELECT VDW BOUNDARY MISC KINETIC TOTAL TEMP POTENTIAL TOTAL3 TEMPAVG PRESSURE GPRESSURE VOLUME PRESSAVG GPRESSAVG
ENERGY: 0 0.0000 0.0000 0.0000 0.0000 0.0000 88672.7023 0.0000 0.0000 8941.7091 97614.4114 300.0082 88672.7023 97617.4947 300.0082 309647.3094 309647.3094 99639.2115 309647.3094 309647.3094
ENERGY: 2000 0.0000 0.0000 0.0000 0.0000 0.0000 88607.1218 0.0000 0.0000 8907.2614 97514.3832 298.8524 88607.1218 97517.3940 300.6098 309439.5641 309439.5641 99639.2115 309416.0113 309416.0113
ENERGY: 4000 0.0000 0.0000 0.0000 0.0000 0.0000 88613.5062 0.0000 0.0000 8904.2576 97517.7638 298.7516 88613.5062 97520.7604 300.0726 309453.9246 309453.9246 99639.2115 309291.4180 309291.4180
ENERGY: 6000 0.0000 0.0000 0.0000 0.0000 0.0000 88447.2377 0.0000 0.0000 8880.7008 97327.9384 297.9613 88447.2377 97330.8887 300.9163 308969.3356 308969.3356 99639.2115 308727.6553 308727.6553
ENERGY: 8000 0.0000 0.0000 0.0000 0.0000 0.0000 88355.6739 0.0000 0.0000 8949.0589 97304.7328 300.2548 88355.6739 97307.8013 300.3267 308726.2795 308726.2795 99639.2115 308887.5946 308887.5946
ENERGY: 10000 0.0000 0.0000 0.0000 0.0000 0.0000 88238.3493 0.0000 0.0000 9004.7021 97243.0514 302.1217 88238.3493 97246.2230 300.0522 308415.7864 308415.7864 99639.2115 308560.0896 308560.0896
