Info: SIMULATION PARAMETERS:
Info: TIMESTEP               1
Info: NUMBER OF STEPS        0
Info: STEPS PER CYCLE        20
Info: PERIODIC CELL BASIS 1  46.36 0 0
Info: PERIODIC CELL BASIS 2  0 46.36 0
Info: PERIODIC CELL BASIS 3  0 0 46.36
Info: PERIODIC CELL CENTER   0 0 0
Info: FIRST LDB TIMESTEP     100
Info: LAST LDB TIMESTEP     -1
Info: HOM BACKGROUND SCALING 1
Info: MIN ATOMS PER PATCH    40
Info: INITIAL TEMPERATURE    300
Info: CENTER OF MASS MOVING INITIALLY? NO
Info: DIELECTRIC             1
Info: EXCLUDE                SCALED ONE-FOUR
Info: 1-4 ELECTROSTATICS SCALED BY 1
Info: MODIFIED 1-4 VDW PARAMETERS WILL BE USED
Info: DCD FILENAME           ./ne10k.dcd
Info: DCD FREQUENCY          100
Info: DCD FIRST STEP         100
Info: DCD FILE WILL CONTAIN UNIT CELL DATA
Info: NO EXTENDED SYSTEM TRAJECTORY OUTPUT
Info: NO VELOCITY DCD OUTPUT
Info: NO FORCE DCD OUTPUT
Info: OUTPUT FILENAME        ./ne10k
Info: RESTART FILENAME       ./ne10k
Info: RESTART FREQUENCY      20000
Info: BINARY RESTART FILES WILL BE USED
Info: CUTOFF                 12
Info: PAIRLIST DISTANCE      12
Info: PAIRLIST SHRINK RATE   0.01
Info: PAIRLIST GROW RATE     0.01
Info: PAIRLIST TRIGGER       0.3
Info: PAIRLISTS PER CYCLE    2
Info: PAIRLISTS ENABLED
Info: MARGIN                 0
Info: HYDROGEN GROUP CUTOFF  2.5
Info: PATCH DIMENSION        14.5
Info: ENERGY OUTPUT STEPS    50
Info: CROSSTERM ENERGY INCLUDED IN DIHEDRAL
Info: TIMING OUTPUT STEPS    500
Info: VELOCITY RESCALE FREQ  10
Info: VELOCITY RESCALE TEMP  300
Info: USING VERLET I (r-RESPA) MTS SCHEME.
Info: C1 SPLITTING OF LONG RANGE ELECTROSTATICS
Info: PLACING ATOMS IN PATCHES BY HYDROGEN GROUPS
Info: RANDOM NUMBER SEED     1630270351
Info: USE HYDROGEN BONDS?    NO
Info: COORDINATE PDB         ./ne10k_initial.pdb
Info: STRUCTURE FILE         ./ne10k.psf
Info: PARAMETER file: CHARMM format!
Info: PARAMETERS             ./par_bms_dec03.inp
Info: USING ARITHMETIC MEAN TO COMBINE L-J SIGMA PARAMETERS
Info: SUMMARY OF PARAMETERS:
Info: 74 BONDS
Info: 164 ANGLES
Info: 207 DIHEDRAL
Info: 19 IMPROPER
Info: 0 CROSSTERM
Info: 50 VDW
Info: 2 VDW_PAIRS
Info: 0 NBTHOLE_PAIRS
Info: STRUCTURE SUMMARY:
Info: 10000 ATOMS
Info: 0 BONDS
Info: 0 ANGLES
Info: 0 DIHEDRALS
Info: 0 IMPROPERS
Info: 0 CROSSTERMS
Info: 0 EXCLUSIONS
Info: 29997 DEGREES OF FREEDOM
Info: 10000 HYDROGEN GROUPS
Info: 1 ATOMS IN LARGEST HYDROGEN GROUP
Info: 10000 MIGRATION GROUPS
Info: 1 ATOMS IN LARGEST MIGRATION GROUP
Info: TOTAL MASS = 201790 amu
Info: TOTAL CHARGE = 0 e
Info: MASS DENSITY = 3.36301 g/cm^3
Info: ATOM DENSITY = 0.100362 atoms/A^3
Info: ADDED 0 IMPLICIT EXCLUSIONS
Info: NONBONDED TABLE R-SQUARED SPACING: 0.0625
Info: NONBONDED TABLE SIZE: 769 POINTS
Info: REMOVING COM VELOCITY 0.0326673 -0.0296195 -0.0318827
TCL: Running for 10000 steps
ETITLE: TS BOND ANGLE DIHED IMPRP ELECT VDW BOUNDARY MISC KINETIC TOTAL TEMP POTENTIAL TOTAL3 TEMPAVG PRESSURE GPRESSURE VOLUME PRESSAVG GPRESSAVG
ENERGY: 0 0.0000 0.0000 0.0000 0.0000 0.0000 88672.7023 0.0000 0.0000 8955.6549 97628.3572 300.4761 88672.7023 97631.4404 300.4761 309653.7943 309653.7943 99639.2115 309653.7943 309653.7943
ENERGY: 2000 0.0000 0.0000 0.0000 0.0000 0.0000 88615.5873 0.0000 0.0000 8910.7433 97526.3306 298.9692 88615.5873 97529.3096 300.1751 309465.5065 309465.5065 99639.2115 309415.4182 309415.4182
ENERGY: 4000 0.0000 0.0000 0.0000 0.0000 0.0000 88507.4641 0.0000 0.0000 8905.5637 97413.0278 298.7954 88507.4641 97416.0164 299.8467 309149.1156 309149.1156 99639.2115 308969.7311 308969.7311
ENERGY: 6000 0.0000 0.0000 0.0000 0.0000 0.0000 88489.2277 0.0000 0.0000 8929.1755 97418.4032 299.5877 88489.2277 97421.3754 299.4428 309107.2934 309107.2934 99639.2115 309076.3788 309076.3788
ENERGY: 8000 0.0000 0.0000 0.0000 0.0000 0.0000 88385.3022 0.0000 0.0000 8913.1649 97298.4672 299.0505 88385.3022 97301.4801 299.7953 308795.4427 308795.4427 99639.2115 308718.6934 308718.6934
ENERGY: 10000 0.0000 0.0000 0.0000 0.0000 0.0000 88386.6727 0.0000 0.0000 8930.7376 97317.4103 299.6401 88386.6727 97320.4684 299.4963 308808.5764 308808.5764 99639.2115 308708.1656 308708.1656
