Info: SIMULATION PARAMETERS:
Info: TIMESTEP               1
Info: NUMBER OF STEPS        0
Info: STEPS PER CYCLE        20
Info: PERIODIC CELL BASIS 1  144.051 0 0
Info: PERIODIC CELL BASIS 2  0 144.051 0
Info: PERIODIC CELL BASIS 3  0 0 144.051
Info: PERIODIC CELL CENTER   0 0 0
Info: FIRST LDB TIMESTEP     100
Info: LAST LDB TIMESTEP     -1
Info: HOM BACKGROUND SCALING 1
Info: MIN ATOMS PER PATCH    40
Info: INITIAL TEMPERATURE    300
Info: CENTER OF MASS MOVING INITIALLY? NO
Info: DIELECTRIC             1
Info: EXCLUDE                SCALED ONE-FOUR
Info: 1-4 ELECTROSTATICS SCALED BY 1
Info: MODIFIED 1-4 VDW PARAMETERS WILL BE USED
Info: DCD FILENAME           ./ne300k.dcd
Info: DCD FREQUENCY          100
Info: DCD FIRST STEP         100
Info: DCD FILE WILL CONTAIN UNIT CELL DATA
Info: NO EXTENDED SYSTEM TRAJECTORY OUTPUT
Info: NO VELOCITY DCD OUTPUT
Info: NO FORCE DCD OUTPUT
Info: OUTPUT FILENAME        ./ne300k
Info: RESTART FILENAME       ./ne300k
Info: RESTART FREQUENCY      20000
Info: BINARY RESTART FILES WILL BE USED
Info: CUTOFF                 12
Info: PAIRLIST DISTANCE      12
Info: PAIRLIST SHRINK RATE   0.01
Info: PAIRLIST GROW RATE     0.01
Info: PAIRLIST TRIGGER       0.3
Info: PAIRLISTS PER CYCLE    2
Info: PAIRLISTS ENABLED
Info: MARGIN                 0
Info: HYDROGEN GROUP CUTOFF  2.5
Info: PATCH DIMENSION        14.5
Info: ENERGY OUTPUT STEPS    50
Info: CROSSTERM ENERGY INCLUDED IN DIHEDRAL
Info: TIMING OUTPUT STEPS    500
Info: VELOCITY RESCALE FREQ  10
Info: VELOCITY RESCALE TEMP  300
Info: USING VERLET I (r-RESPA) MTS SCHEME.
Info: C1 SPLITTING OF LONG RANGE ELECTROSTATICS
Info: PLACING ATOMS IN PATCHES BY HYDROGEN GROUPS
Info: RANDOM NUMBER SEED     1630212654
Info: USE HYDROGEN BONDS?    NO
Info: COORDINATE PDB         ./ne300k_initial.pdb
Info: STRUCTURE FILE         ./ne300k.psf
Info: PARAMETER file: CHARMM format!
Info: PARAMETERS             ./par_bms_dec03.inp
Info: USING ARITHMETIC MEAN TO COMBINE L-J SIGMA PARAMETERS
Info: SUMMARY OF PARAMETERS:
Info: 74 BONDS
Info: 164 ANGLES
Info: 207 DIHEDRAL
Info: 19 IMPROPER
Info: 0 CROSSTERM
Info: 50 VDW
Info: 2 VDW_PAIRS
Info: 0 NBTHOLE_PAIRS
Info: STRUCTURE SUMMARY:
Info: 300000 ATOMS
Info: 0 BONDS
Info: 0 ANGLES
Info: 0 DIHEDRALS
Info: 0 IMPROPERS
Info: 0 CROSSTERMS
Info: 0 EXCLUSIONS
Info: 899997 DEGREES OF FREEDOM
Info: 300000 HYDROGEN GROUPS
Info: 1 ATOMS IN LARGEST HYDROGEN GROUP
Info: 300000 MIGRATION GROUPS
Info: 1 ATOMS IN LARGEST MIGRATION GROUP
Info: TOTAL MASS = 6.0537e+06 amu
Info: TOTAL CHARGE = 0 e
Info: MASS DENSITY = 3.36301 g/cm^3
Info: ATOM DENSITY = 0.100362 atoms/A^3
Info: ADDED 0 IMPLICIT EXCLUSIONS
Info: NONBONDED TABLE R-SQUARED SPACING: 0.0625
Info: NONBONDED TABLE SIZE: 769 POINTS
Info: REMOVING COM VELOCITY 0.00279813 0.000930284 -0.00686303
TCL: Running for 10000 steps
ETITLE: TS BOND ANGLE DIHED IMPRP ELECT VDW BOUNDARY MISC KINETIC TOTAL TEMP POTENTIAL TOTAL3 TEMPAVG PRESSURE GPRESSURE VOLUME PRESSAVG GPRESSAVG
ENERGY: 0 0.0000 0.0000 0.0000 0.0000 0.0000 2657178.4879 0.0000 0.0000 267976.4407 2925154.9286 299.6718 2657178.4879 2925247.4061 299.6718 309352.0562 309352.0562 2989176.3437 309352.0562 309352.0562
ENERGY: 2000 0.0000 0.0000 0.0000 0.0000 0.0000 2654592.4565 0.0000 0.0000 268224.5861 2922817.0426 299.9493 2654592.4565 2922908.7847 300.0193 309106.4625 309106.4625 2989176.3437 309117.4891 309117.4891
ENERGY: 4000 0.0000 0.0000 0.0000 0.0000 0.0000 2652403.8652 0.0000 0.0000 268228.0813 2920631.9466 299.9532 2652403.8652 2920723.4963 299.9560 308895.5054 308895.5054 2989176.3437 308888.3208 308888.3208
ENERGY: 6000 0.0000 0.0000 0.0000 0.0000 0.0000 2649971.3379 0.0000 0.0000 268340.5647 2918311.9025 300.0790 2649971.3379 2918403.9618 300.1518 308662.0735 308662.0735 2989176.3437 308682.5683 308682.5683
ENERGY: 8000 0.0000 0.0000 0.0000 0.0000 0.0000 2648859.7893 0.0000 0.0000 268207.3694 2917067.1587 299.9301 2648859.7893 2917158.1386 299.8826 308552.6901 308552.6901 2989176.3437 308509.9440 308509.9440
ENERGY: 10000 0.0000 0.0000 0.0000 0.0000 0.0000 2646972.9803 0.0000 0.0000 268111.2814 2915084.2617 299.8226 2646972.9803 2915175.3484 300.0413 308369.5941 308369.5941 2989176.3437 308359.8332 308359.8332
