Info: SIMULATION PARAMETERS:
Info: TIMESTEP               1
Info: NUMBER OF STEPS        0
Info: STEPS PER CYCLE        20
Info: PERIODIC CELL BASIS 1  144.051 0 0
Info: PERIODIC CELL BASIS 2  0 144.051 0
Info: PERIODIC CELL BASIS 3  0 0 144.051
Info: PERIODIC CELL CENTER   0 0 0
Info: FIRST LDB TIMESTEP     100
Info: LAST LDB TIMESTEP     -1
Info: HOM BACKGROUND SCALING 1
Info: MIN ATOMS PER PATCH    40
Info: INITIAL TEMPERATURE    300
Info: CENTER OF MASS MOVING INITIALLY? NO
Info: DIELECTRIC             1
Info: EXCLUDE                SCALED ONE-FOUR
Info: 1-4 ELECTROSTATICS SCALED BY 1
Info: MODIFIED 1-4 VDW PARAMETERS WILL BE USED
Info: DCD FILENAME           ./ne300k.dcd
Info: DCD FREQUENCY          100
Info: DCD FIRST STEP         100
Info: DCD FILE WILL CONTAIN UNIT CELL DATA
Info: NO EXTENDED SYSTEM TRAJECTORY OUTPUT
Info: NO VELOCITY DCD OUTPUT
Info: NO FORCE DCD OUTPUT
Info: OUTPUT FILENAME        ./ne300k
Info: RESTART FILENAME       ./ne300k
Info: RESTART FREQUENCY      20000
Info: BINARY RESTART FILES WILL BE USED
Info: CUTOFF                 12
Info: PAIRLIST DISTANCE      12
Info: PAIRLIST SHRINK RATE   0.01
Info: PAIRLIST GROW RATE     0.01
Info: PAIRLIST TRIGGER       0.3
Info: PAIRLISTS PER CYCLE    2
Info: PAIRLISTS ENABLED
Info: MARGIN                 0
Info: HYDROGEN GROUP CUTOFF  2.5
Info: PATCH DIMENSION        14.5
Info: ENERGY OUTPUT STEPS    50
Info: CROSSTERM ENERGY INCLUDED IN DIHEDRAL
Info: TIMING OUTPUT STEPS    500
Info: VELOCITY RESCALE FREQ  10
Info: VELOCITY RESCALE TEMP  300
Info: USING VERLET I (r-RESPA) MTS SCHEME.
Info: C1 SPLITTING OF LONG RANGE ELECTROSTATICS
Info: PLACING ATOMS IN PATCHES BY HYDROGEN GROUPS
Info: RANDOM NUMBER SEED     1630349080
Info: USE HYDROGEN BONDS?    NO
Info: COORDINATE PDB         ./ne300k_initial.pdb
Info: STRUCTURE FILE         ./ne300k.psf
Info: PARAMETER file: CHARMM format!
Info: PARAMETERS             ./par_bms_dec03.inp
Info: USING ARITHMETIC MEAN TO COMBINE L-J SIGMA PARAMETERS
Info: SUMMARY OF PARAMETERS:
Info: 74 BONDS
Info: 164 ANGLES
Info: 207 DIHEDRAL
Info: 19 IMPROPER
Info: 0 CROSSTERM
Info: 50 VDW
Info: 2 VDW_PAIRS
Info: 0 NBTHOLE_PAIRS
Info: STRUCTURE SUMMARY:
Info: 300000 ATOMS
Info: 0 BONDS
Info: 0 ANGLES
Info: 0 DIHEDRALS
Info: 0 IMPROPERS
Info: 0 CROSSTERMS
Info: 0 EXCLUSIONS
Info: 899997 DEGREES OF FREEDOM
Info: 300000 HYDROGEN GROUPS
Info: 1 ATOMS IN LARGEST HYDROGEN GROUP
Info: 300000 MIGRATION GROUPS
Info: 1 ATOMS IN LARGEST MIGRATION GROUP
Info: TOTAL MASS = 6.0537e+06 amu
Info: TOTAL CHARGE = 0 e
Info: MASS DENSITY = 3.36301 g/cm^3
Info: ATOM DENSITY = 0.100362 atoms/A^3
Info: ADDED 0 IMPLICIT EXCLUSIONS
Info: NONBONDED TABLE R-SQUARED SPACING: 0.0625
Info: NONBONDED TABLE SIZE: 769 POINTS
Info: REMOVING COM VELOCITY 0.000474676 -0.00450678 -0.000950979
TCL: Running for 10000 steps
ETITLE: TS BOND ANGLE DIHED IMPRP ELECT VDW BOUNDARY MISC KINETIC TOTAL TEMP POTENTIAL TOTAL3 TEMPAVG PRESSURE GPRESSURE VOLUME PRESSAVG GPRESSAVG
ENERGY: 0 0.0000 0.0000 0.0000 0.0000 0.0000 2657178.4879 0.0000 0.0000 268314.0667 2925492.5546 300.0494 2657178.4879 2925585.0321 300.0494 309357.2895 309357.2895 2989176.3437 309357.2895 309357.2895
ENERGY: 2000 0.0000 0.0000 0.0000 0.0000 0.0000 2654550.5636 0.0000 0.0000 268404.1131 2922954.6767 300.1501 2654550.5636 2923046.4970 300.0138 309106.6055 309106.6055 2989176.3437 309107.6431 309107.6431
ENERGY: 4000 0.0000 0.0000 0.0000 0.0000 0.0000 2652534.1574 0.0000 0.0000 268347.6629 2920881.8203 300.0870 2652534.1574 2920973.6060 299.9049 308909.4750 308909.4750 2989176.3437 308883.3220 308883.3220
ENERGY: 6000 0.0000 0.0000 0.0000 0.0000 0.0000 2649838.7612 0.0000 0.0000 268434.6903 2918273.4514 300.1843 2649838.7612 2918365.4489 300.0271 308651.0914 308651.0914 2989176.3437 308662.9833 308662.9833
ENERGY: 8000 0.0000 0.0000 0.0000 0.0000 0.0000 2648310.4732 0.0000 0.0000 268409.7030 2916720.1762 300.1563 2648310.4732 2916811.7213 299.9431 308503.1753 308503.1753 2989176.3437 308489.1928 308489.1928
ENERGY: 10000 0.0000 0.0000 0.0000 0.0000 0.0000 2646508.5421 0.0000 0.0000 268212.5187 2914721.0607 299.9358 2646508.5421 2914812.2214 299.8377 308325.1691 308325.1691 2989176.3437 308305.5936 308305.5936
