Info: SIMULATION PARAMETERS:
Info: TIMESTEP               1
Info: NUMBER OF STEPS        0
Info: STEPS PER CYCLE        20
Info: PERIODIC CELL BASIS 1  144.051 0 0
Info: PERIODIC CELL BASIS 2  0 144.051 0
Info: PERIODIC CELL BASIS 3  0 0 144.051
Info: PERIODIC CELL CENTER   0 0 0
Info: FIRST LDB TIMESTEP     100
Info: LAST LDB TIMESTEP     -1
Info: HOM BACKGROUND SCALING 1
Info: MIN ATOMS PER PATCH    40
Info: INITIAL TEMPERATURE    300
Info: CENTER OF MASS MOVING INITIALLY? NO
Info: DIELECTRIC             1
Info: EXCLUDE                SCALED ONE-FOUR
Info: 1-4 ELECTROSTATICS SCALED BY 1
Info: MODIFIED 1-4 VDW PARAMETERS WILL BE USED
Info: DCD FILENAME           ./ne300k.dcd
Info: DCD FREQUENCY          100
Info: DCD FIRST STEP         100
Info: DCD FILE WILL CONTAIN UNIT CELL DATA
Info: NO EXTENDED SYSTEM TRAJECTORY OUTPUT
Info: NO VELOCITY DCD OUTPUT
Info: NO FORCE DCD OUTPUT
Info: OUTPUT FILENAME        ./ne300k
Info: RESTART FILENAME       ./ne300k
Info: RESTART FREQUENCY      20000
Info: BINARY RESTART FILES WILL BE USED
Info: CUTOFF                 12
Info: PAIRLIST DISTANCE      12
Info: PAIRLIST SHRINK RATE   0.01
Info: PAIRLIST GROW RATE     0.01
Info: PAIRLIST TRIGGER       0.3
Info: PAIRLISTS PER CYCLE    2
Info: PAIRLISTS ENABLED
Info: MARGIN                 0
Info: HYDROGEN GROUP CUTOFF  2.5
Info: PATCH DIMENSION        14.5
Info: ENERGY OUTPUT STEPS    50
Info: CROSSTERM ENERGY INCLUDED IN DIHEDRAL
Info: TIMING OUTPUT STEPS    500
Info: VELOCITY RESCALE FREQ  10
Info: VELOCITY RESCALE TEMP  300
Info: USING VERLET I (r-RESPA) MTS SCHEME.
Info: C1 SPLITTING OF LONG RANGE ELECTROSTATICS
Info: PLACING ATOMS IN PATCHES BY HYDROGEN GROUPS
Info: RANDOM NUMBER SEED     1630357446
Info: USE HYDROGEN BONDS?    NO
Info: COORDINATE PDB         ./ne300k_initial.pdb
Info: STRUCTURE FILE         ./ne300k.psf
Info: PARAMETER file: CHARMM format!
Info: PARAMETERS             ./par_bms_dec03.inp
Info: USING ARITHMETIC MEAN TO COMBINE L-J SIGMA PARAMETERS
Info: SUMMARY OF PARAMETERS:
Info: 74 BONDS
Info: 164 ANGLES
Info: 207 DIHEDRAL
Info: 19 IMPROPER
Info: 0 CROSSTERM
Info: 50 VDW
Info: 2 VDW_PAIRS
Info: 0 NBTHOLE_PAIRS
Info: STRUCTURE SUMMARY:
Info: 300000 ATOMS
Info: 0 BONDS
Info: 0 ANGLES
Info: 0 DIHEDRALS
Info: 0 IMPROPERS
Info: 0 CROSSTERMS
Info: 0 EXCLUSIONS
Info: 899997 DEGREES OF FREEDOM
Info: 300000 HYDROGEN GROUPS
Info: 1 ATOMS IN LARGEST HYDROGEN GROUP
Info: 300000 MIGRATION GROUPS
Info: 1 ATOMS IN LARGEST MIGRATION GROUP
Info: TOTAL MASS = 6.0537e+06 amu
Info: TOTAL CHARGE = 0 e
Info: MASS DENSITY = 3.36301 g/cm^3
Info: ATOM DENSITY = 0.100362 atoms/A^3
Info: ADDED 0 IMPLICIT EXCLUSIONS
Info: NONBONDED TABLE R-SQUARED SPACING: 0.0625
Info: NONBONDED TABLE SIZE: 769 POINTS
Info: REMOVING COM VELOCITY 0.00226281 0.00794923 -0.00966022
TCL: Running for 10000 steps
ETITLE: TS BOND ANGLE DIHED IMPRP ELECT VDW BOUNDARY MISC KINETIC TOTAL TEMP POTENTIAL TOTAL3 TEMPAVG PRESSURE GPRESSURE VOLUME PRESSAVG GPRESSAVG
ENERGY: 0 0.0000 0.0000 0.0000 0.0000 0.0000 2657178.4879 0.0000 0.0000 267627.3621 2924805.8500 299.2815 2657178.4879 2924898.3276 299.2815 309346.6454 309346.6454 2989176.3437 309346.6454 309346.6454
ENERGY: 2000 0.0000 0.0000 0.0000 0.0000 0.0000 2654282.9597 0.0000 0.0000 268347.6594 2922630.6190 300.0870 2654282.9597 2922722.4432 300.0072 309078.2597 309078.2597 2989176.3437 309102.7762 309102.7762
ENERGY: 4000 0.0000 0.0000 0.0000 0.0000 0.0000 2651949.5434 0.0000 0.0000 267941.3778 2919890.9212 299.6326 2651949.5434 2919982.2584 300.1274 308846.3083 308846.3083 2989176.3437 308851.6743 308851.6743
ENERGY: 6000 0.0000 0.0000 0.0000 0.0000 0.0000 2650806.7928 0.0000 0.0000 268171.6762 2918978.4690 299.8902 2650806.7928 2919069.8468 299.8605 308739.9614 308739.9614 2989176.3437 308707.6383 308707.6383
ENERGY: 8000 0.0000 0.0000 0.0000 0.0000 0.0000 2648226.3279 0.0000 0.0000 268122.2368 2916348.5647 299.8349 2648226.3279 2916439.9624 300.1239 308490.6560 308490.6560 2989176.3437 308525.0036 308525.0036
ENERGY: 10000 0.0000 0.0000 0.0000 0.0000 0.0000 2646588.9820 0.0000 0.0000 268106.5597 2914695.5417 299.8174 2646588.9820 2914786.8730 300.0791 308332.2878 308332.2878 2989176.3437 308328.7990 308328.7990
