Info: SIMULATION PARAMETERS:
Info: TIMESTEP               1
Info: NUMBER OF STEPS        0
Info: STEPS PER CYCLE        20
Info: PERIODIC CELL BASIS 1  144.051 0 0
Info: PERIODIC CELL BASIS 2  0 144.051 0
Info: PERIODIC CELL BASIS 3  0 0 144.051
Info: PERIODIC CELL CENTER   0 0 0
Info: FIRST LDB TIMESTEP     100
Info: LAST LDB TIMESTEP     -1
Info: HOM BACKGROUND SCALING 1
Info: MIN ATOMS PER PATCH    40
Info: INITIAL TEMPERATURE    300
Info: CENTER OF MASS MOVING INITIALLY? NO
Info: DIELECTRIC             1
Info: EXCLUDE                SCALED ONE-FOUR
Info: 1-4 ELECTROSTATICS SCALED BY 1
Info: MODIFIED 1-4 VDW PARAMETERS WILL BE USED
Info: DCD FILENAME           ./ne300k.dcd
Info: DCD FREQUENCY          100
Info: DCD FIRST STEP         100
Info: DCD FILE WILL CONTAIN UNIT CELL DATA
Info: NO EXTENDED SYSTEM TRAJECTORY OUTPUT
Info: NO VELOCITY DCD OUTPUT
Info: NO FORCE DCD OUTPUT
Info: OUTPUT FILENAME        ./ne300k
Info: RESTART FILENAME       ./ne300k
Info: RESTART FREQUENCY      20000
Info: BINARY RESTART FILES WILL BE USED
Info: CUTOFF                 12
Info: PAIRLIST DISTANCE      12
Info: PAIRLIST SHRINK RATE   0.01
Info: PAIRLIST GROW RATE     0.01
Info: PAIRLIST TRIGGER       0.3
Info: PAIRLISTS PER CYCLE    2
Info: PAIRLISTS ENABLED
Info: MARGIN                 0
Info: HYDROGEN GROUP CUTOFF  2.5
Info: PATCH DIMENSION        14.5
Info: ENERGY OUTPUT STEPS    50
Info: CROSSTERM ENERGY INCLUDED IN DIHEDRAL
Info: TIMING OUTPUT STEPS    500
Info: VELOCITY RESCALE FREQ  10
Info: VELOCITY RESCALE TEMP  300
Info: USING VERLET I (r-RESPA) MTS SCHEME.
Info: C1 SPLITTING OF LONG RANGE ELECTROSTATICS
Info: PLACING ATOMS IN PATCHES BY HYDROGEN GROUPS
Info: RANDOM NUMBER SEED     1630336159
Info: USE HYDROGEN BONDS?    NO
Info: COORDINATE PDB         ./ne300k_initial.pdb
Info: STRUCTURE FILE         ./ne300k.psf
Info: PARAMETER file: CHARMM format!
Info: PARAMETERS             ./par_bms_dec03.inp
Info: USING ARITHMETIC MEAN TO COMBINE L-J SIGMA PARAMETERS
Info: SUMMARY OF PARAMETERS:
Info: 74 BONDS
Info: 164 ANGLES
Info: 207 DIHEDRAL
Info: 19 IMPROPER
Info: 0 CROSSTERM
Info: 50 VDW
Info: 2 VDW_PAIRS
Info: 0 NBTHOLE_PAIRS
Info: STRUCTURE SUMMARY:
Info: 300000 ATOMS
Info: 0 BONDS
Info: 0 ANGLES
Info: 0 DIHEDRALS
Info: 0 IMPROPERS
Info: 0 CROSSTERMS
Info: 0 EXCLUSIONS
Info: 899997 DEGREES OF FREEDOM
Info: 300000 HYDROGEN GROUPS
Info: 1 ATOMS IN LARGEST HYDROGEN GROUP
Info: 300000 MIGRATION GROUPS
Info: 1 ATOMS IN LARGEST MIGRATION GROUP
Info: TOTAL MASS = 6.0537e+06 amu
Info: TOTAL CHARGE = 0 e
Info: MASS DENSITY = 3.36301 g/cm^3
Info: ATOM DENSITY = 0.100362 atoms/A^3
Info: ADDED 0 IMPLICIT EXCLUSIONS
Info: NONBONDED TABLE R-SQUARED SPACING: 0.0625
Info: NONBONDED TABLE SIZE: 769 POINTS
Info: REMOVING COM VELOCITY -0.00118012 -0.00720172 -0.00143921
TCL: Running for 10000 steps
ETITLE: TS BOND ANGLE DIHED IMPRP ELECT VDW BOUNDARY MISC KINETIC TOTAL TEMP POTENTIAL TOTAL3 TEMPAVG PRESSURE GPRESSURE VOLUME PRESSAVG GPRESSAVG
ENERGY: 0 0.0000 0.0000 0.0000 0.0000 0.0000 2657178.4879 0.0000 0.0000 267289.1361 2924467.6240 298.9032 2657178.4879 2924560.1015 298.9032 309341.4027 309341.4027 2989176.3437 309341.4027 309341.4027
ENERGY: 2000 0.0000 0.0000 0.0000 0.0000 0.0000 2654580.5314 0.0000 0.0000 268281.1623 2922861.6937 300.0126 2654580.5314 2922953.6907 300.0294 309106.2129 309106.2129 2989176.3437 309113.7006 309113.7006
ENERGY: 4000 0.0000 0.0000 0.0000 0.0000 0.0000 2651663.6724 0.0000 0.0000 268496.9049 2920160.5774 300.2539 2651663.6724 2920252.7356 299.9798 308827.2780 308827.2780 2989176.3437 308856.0269 308856.0269
ENERGY: 6000 0.0000 0.0000 0.0000 0.0000 0.0000 2649785.9449 0.0000 0.0000 268174.9652 2917960.9101 299.8938 2649785.9449 2918051.9824 300.0195 308641.4351 308641.4351 2989176.3437 308643.0016 308643.0016
ENERGY: 8000 0.0000 0.0000 0.0000 0.0000 0.0000 2647563.8203 0.0000 0.0000 268537.6083 2916101.4286 300.2994 2647563.8203 2916193.4489 300.0909 308432.5139 308432.5139 2989176.3437 308486.4005 308486.4005
ENERGY: 10000 0.0000 0.0000 0.0000 0.0000 0.0000 2646091.2073 0.0000 0.0000 268324.6491 2914415.8565 300.0612 2646091.2073 2914507.1804 300.1156 308288.0886 308288.0886 2989176.3437 308322.9730 308322.9730
