Info: SIMULATION PARAMETERS:
Info: TIMESTEP               1
Info: NUMBER OF STEPS        0
Info: STEPS PER CYCLE        20
Info: PERIODIC CELL BASIS 1  144.051 0 0
Info: PERIODIC CELL BASIS 2  0 144.051 0
Info: PERIODIC CELL BASIS 3  0 0 144.051
Info: PERIODIC CELL CENTER   0 0 0
Info: FIRST LDB TIMESTEP     100
Info: LAST LDB TIMESTEP     -1
Info: HOM BACKGROUND SCALING 1
Info: MIN ATOMS PER PATCH    40
Info: INITIAL TEMPERATURE    300
Info: CENTER OF MASS MOVING INITIALLY? NO
Info: DIELECTRIC             1
Info: EXCLUDE                SCALED ONE-FOUR
Info: 1-4 ELECTROSTATICS SCALED BY 1
Info: MODIFIED 1-4 VDW PARAMETERS WILL BE USED
Info: DCD FILENAME           ./ne300k.dcd
Info: DCD FREQUENCY          100
Info: DCD FIRST STEP         100
Info: DCD FILE WILL CONTAIN UNIT CELL DATA
Info: NO EXTENDED SYSTEM TRAJECTORY OUTPUT
Info: NO VELOCITY DCD OUTPUT
Info: NO FORCE DCD OUTPUT
Info: OUTPUT FILENAME        ./ne300k
Info: RESTART FILENAME       ./ne300k
Info: RESTART FREQUENCY      20000
Info: BINARY RESTART FILES WILL BE USED
Info: CUTOFF                 12
Info: PAIRLIST DISTANCE      12
Info: PAIRLIST SHRINK RATE   0.01
Info: PAIRLIST GROW RATE     0.01
Info: PAIRLIST TRIGGER       0.3
Info: PAIRLISTS PER CYCLE    2
Info: PAIRLISTS ENABLED
Info: MARGIN                 0
Info: HYDROGEN GROUP CUTOFF  2.5
Info: PATCH DIMENSION        14.5
Info: ENERGY OUTPUT STEPS    50
Info: CROSSTERM ENERGY INCLUDED IN DIHEDRAL
Info: TIMING OUTPUT STEPS    500
Info: VELOCITY RESCALE FREQ  10
Info: VELOCITY RESCALE TEMP  300
Info: USING VERLET I (r-RESPA) MTS SCHEME.
Info: C1 SPLITTING OF LONG RANGE ELECTROSTATICS
Info: PLACING ATOMS IN PATCHES BY HYDROGEN GROUPS
Info: RANDOM NUMBER SEED     1630317272
Info: USE HYDROGEN BONDS?    NO
Info: COORDINATE PDB         ./ne300k_initial.pdb
Info: STRUCTURE FILE         ./ne300k.psf
Info: PARAMETER file: CHARMM format!
Info: PARAMETERS             ./par_bms_dec03.inp
Info: USING ARITHMETIC MEAN TO COMBINE L-J SIGMA PARAMETERS
Info: SUMMARY OF PARAMETERS:
Info: 74 BONDS
Info: 164 ANGLES
Info: 207 DIHEDRAL
Info: 19 IMPROPER
Info: 0 CROSSTERM
Info: 50 VDW
Info: 2 VDW_PAIRS
Info: 0 NBTHOLE_PAIRS
Info: STRUCTURE SUMMARY:
Info: 300000 ATOMS
Info: 0 BONDS
Info: 0 ANGLES
Info: 0 DIHEDRALS
Info: 0 IMPROPERS
Info: 0 CROSSTERMS
Info: 0 EXCLUSIONS
Info: 899997 DEGREES OF FREEDOM
Info: 300000 HYDROGEN GROUPS
Info: 1 ATOMS IN LARGEST HYDROGEN GROUP
Info: 300000 MIGRATION GROUPS
Info: 1 ATOMS IN LARGEST MIGRATION GROUP
Info: TOTAL MASS = 6.0537e+06 amu
Info: TOTAL CHARGE = 0 e
Info: MASS DENSITY = 3.36301 g/cm^3
Info: ATOM DENSITY = 0.100362 atoms/A^3
Info: ADDED 0 IMPLICIT EXCLUSIONS
Info: NONBONDED TABLE R-SQUARED SPACING: 0.0625
Info: NONBONDED TABLE SIZE: 769 POINTS
Info: REMOVING COM VELOCITY 0.00136198 0.000895865 0.0048906
TCL: Running for 10000 steps
ETITLE: TS BOND ANGLE DIHED IMPRP ELECT VDW BOUNDARY MISC KINETIC TOTAL TEMP POTENTIAL TOTAL3 TEMPAVG PRESSURE GPRESSURE VOLUME PRESSAVG GPRESSAVG
ENERGY: 0 0.0000 0.0000 0.0000 0.0000 0.0000 2657178.4879 0.0000 0.0000 268353.9217 2925532.4096 300.0940 2657178.4879 2925624.8872 300.0940 309357.9073 309357.9073 2989176.3437 309357.9073 309357.9073
ENERGY: 2000 0.0000 0.0000 0.0000 0.0000 0.0000 2653891.7994 0.0000 0.0000 268384.4383 2922276.2377 300.1281 2653891.7994 2922368.3033 300.2233 309042.4775 309042.4775 2989176.3437 309111.0867 309111.0867
ENERGY: 4000 0.0000 0.0000 0.0000 0.0000 0.0000 2652397.5954 0.0000 0.0000 267974.3435 2920371.9388 299.6695 2652397.5954 2920463.1125 300.1079 308890.4379 308890.4379 2989176.3437 308885.5114 308885.5114
ENERGY: 6000 0.0000 0.0000 0.0000 0.0000 0.0000 2650622.7521 0.0000 0.0000 268083.1015 2918705.8536 299.7911 2650622.7521 2918797.0427 299.9994 308719.0125 308719.0125 2989176.3437 308681.6368 308681.6368
ENERGY: 8000 0.0000 0.0000 0.0000 0.0000 0.0000 2648334.9736 0.0000 0.0000 268284.5246 2916619.4982 300.0164 2648334.9736 2916711.2855 300.0068 308503.1188 308503.1188 2989176.3437 308495.9748 308495.9748
ENERGY: 10000 0.0000 0.0000 0.0000 0.0000 0.0000 2646387.3154 0.0000 0.0000 268318.4081 2914705.7235 300.0543 2646387.3154 2914797.4467 300.0063 308315.8309 308315.8309 2989176.3437 308336.5710 308336.5710
